/*--------------------------------*- C++ -*----------------------------------*\
  =========                 |
  \\      /  F ield         | OpenFOAM: The Open Source CFD Toolbox
   \\    /   O peration     | Website:  https://openfoam.org
    \\  /    A nd           | Version:  6
     \\/     M anipulation  |
\*---------------------------------------------------------------------------*/
FoamFile
{
    version     2.0;
    format      ascii;
    class       polyBoundaryMesh;
    location    "constant/polyMesh";
    object      boundary;
}
// * * * * * * * * * * * * * * * * * * * * * * * * * * * * * * * * * * * * * //

5
(
    up
    {
        type            wall;
        inGroups        1(wall);
        nFaces          84;
        startFace       3089;
    }
    low
    {
        type            wall;
        inGroups        1(wall);
        nFaces          84;
        startFace       3173;
    }
    left
    {
        type            wall;
        inGroups        1(wall);
        nFaces          19;
        startFace       3257;
    }
    right
    {
        type            wall;
        inGroups        1(wall);
        nFaces          19;
        startFace       3276;
    }
    frontAndBackPlanes
    {
        type            empty;
        inGroups        1(empty);
        nFaces          3192;
        startFace       3295;
    }
)

// ************************************************************************* //
